Version 4
SHEET 1 2024 2900
WIRE -272 -320 -400 -320
WIRE -192 -320 -272 -320
WIRE -128 -320 -192 -320
WIRE 176 -320 128 -320
WIRE 256 -320 176 -320
WIRE 352 -320 256 -320
WIRE 816 80 640 80
WIRE 1008 80 816 80
WIRE 592 160 528 160
WIRE 960 160 896 160
WIRE 1312 160 1248 160
WIRE 80 176 80 144
WIRE 176 176 80 176
WIRE 256 176 176 176
WIRE -944 224 -1088 224
WIRE -800 224 -944 224
WIRE 592 224 592 160
WIRE 960 224 960 160
WIRE 1312 224 1312 160
WIRE 80 240 80 176
WIRE -800 256 -800 224
WIRE 0 304 -96 304
WIRE -944 336 -944 304
WIRE 192 336 80 336
WIRE 0 368 -80 368
WIRE 128 400 80 400
WIRE -944 464 -944 416
WIRE -432 496 -512 496
WIRE -944 544 -944 528
WIRE -944 544 -1088 544
WIRE -800 544 -800 320
WIRE -800 544 -944 544
WIRE -944 560 -944 544
WIRE 80 576 80 544
WIRE 176 576 80 576
WIRE 256 576 176 576
WIRE -512 592 -512 496
WIRE -432 592 -512 592
WIRE 80 640 80 576
WIRE -512 688 -512 592
WIRE -432 688 -512 688
WIRE 0 704 -96 704
WIRE 192 736 80 736
WIRE -512 784 -512 688
WIRE -432 784 -512 784
WIRE 144 800 80 800
WIRE 960 864 912 864
WIRE -944 912 -1088 912
WIRE -800 912 -944 912
WIRE -800 944 -800 912
WIRE 960 960 960 944
WIRE 1104 960 1104 928
WIRE 1104 960 960 960
WIRE 1168 960 1104 960
WIRE -944 1024 -944 992
WIRE -512 1040 -512 1024
WIRE -512 1040 -576 1040
WIRE -336 1040 -512 1040
WIRE -160 1040 -272 1040
WIRE 848 1056 752 1056
WIRE 1056 1056 1056 1040
WIRE 1056 1056 928 1056
WIRE -944 1152 -944 1104
WIRE 928 1152 928 1136
WIRE -512 1200 -512 1040
WIRE -944 1232 -944 1216
WIRE -944 1232 -1088 1232
WIRE -800 1232 -800 1008
WIRE -800 1232 -944 1232
WIRE -192 1232 -336 1232
WIRE -944 1248 -944 1232
WIRE -512 1312 -512 1280
WIRE -384 1312 -512 1312
WIRE -944 1632 -1088 1632
WIRE -800 1632 -944 1632
WIRE -800 1664 -800 1632
WIRE -944 1744 -944 1712
WIRE -64 1760 -192 1760
WIRE 480 1760 416 1760
WIRE 416 1824 416 1760
WIRE 480 1824 416 1824
WIRE 1008 1824 480 1824
WIRE 80 1840 -16 1840
WIRE 192 1840 192 1824
WIRE 192 1840 80 1840
WIRE -944 1872 -944 1824
WIRE 80 1872 80 1840
WIRE 192 1872 192 1840
WIRE 592 1904 544 1904
WIRE 640 1904 592 1904
WIRE 720 1904 640 1904
WIRE -64 1920 -64 1760
WIRE -272 1936 -368 1936
WIRE -16 1936 -80 1936
WIRE -944 1952 -944 1936
WIRE -944 1952 -1088 1952
WIRE -864 1952 -944 1952
WIRE -800 1952 -800 1728
WIRE -800 1952 -864 1952
WIRE -944 1968 -944 1952
WIRE 544 1968 544 1904
WIRE 592 1968 592 1904
WIRE 80 2000 80 1936
WIRE 192 2000 192 1952
WIRE 192 2000 80 2000
WIRE 416 2000 416 1824
WIRE 480 2000 416 2000
WIRE 368 2032 320 2032
WIRE 480 2032 368 2032
WIRE 192 2064 192 2000
WIRE 480 2064 192 2064
WIRE -368 2096 -368 1936
WIRE -944 2320 -1088 2320
WIRE -800 2320 -944 2320
WIRE -800 2352 -800 2320
WIRE -944 2432 -944 2400
WIRE -944 2560 -944 2512
WIRE -944 2640 -944 2624
WIRE -944 2640 -1088 2640
WIRE -864 2640 -944 2640
WIRE -800 2640 -800 2416
WIRE -800 2640 -864 2640
WIRE -944 2656 -944 2640
FLAG -272 -256 0
FLAG -192 -256 0
FLAG 176 -256 0
FLAG 256 -256 0
FLAG 352 -320 VCC
FLAG 0 -224 0
FLAG -400 -240 0
FLAG 640 176 0
FLAG 528 160 AUDIO1
FLAG 816 0 VCC
FLAG 16 2000 0
FLAG 192 1744 VCC
FLAG 560 1760 VCC
FLAG 480 1824 TRIGGER1
FLAG 1104 1056 VCC
FLAG 960 1968 0
FLAG 960 1840 0
FLAG 1008 1904 0
FLAG 1104 848 0
FLAG 960 784 0
FLAG 912 864 TTP_AHLB
FLAG -368 2176 0
FLAG -80 2032 0
FLAG -272 2032 0
FLAG -1088 224 DIS1
FLAG -944 608 0
FLAG -1088 544 THRES1
FLAG 80 144 VCC
FLAG 0 432 0
FLAG 80 304 THRES2
FLAG 80 432 THRES2
FLAG 80 272 DIS2
FLAG -160 368 AUDIO1
FLAG 0 240 DIS1
FLAG 0 272 THRES1
FLAG 0 400 THRES1
FLAG 208 400 AUDIO2
FLAG 0 832 0
FLAG 80 704 THRES4
FLAG 80 832 THRES4
FLAG 256 736 0
FLAG 80 672 DIS4
FLAG -160 704 0
FLAG 0 768 AUDIOTOGGLE
FLAG 0 640 DIS3
FLAG 0 672 THRES3
FLAG 0 800 THRES3
FLAG 224 800 LED
FLAG 480 1968 0
FLAG 320 2032 ALARM
FLAG 608 2064 0
FLAG 544 2032 0
FLAG -512 1024 AUDIOTOGGLE
FLAG -160 1040 AUDIO1
FLAG -944 64 VCC
FLAG 256 336 0
FLAG -160 304 0
FLAG 0 336 RA1
FLAG 80 368 RA2
FLAG 0 736 RAT
FLAG 80 768 RLED
FLAG -512 416 ALARM
FLAG -432 496 RA1
FLAG -432 592 RA2
FLAG -432 688 RAT
FLAG -432 784 RLED
FLAG 176 240 0
FLAG 256 240 0
FLAG 80 544 VCC
FLAG 176 640 0
FLAG 256 640 0
FLAG 592 1968 VCC
FLAG 640 1968 0
FLAG 720 1968 0
FLAG 368 1968 0
FLAG -640 1040 0
FLAG 592 288 ALARM
FLAG 1008 176 0
FLAG 896 160 AUDIO2
FLAG 960 288 ALARM
FLAG 1360 176 0
FLAG 1248 160 LED
FLAG 1312 288 ALARM
FLAG 1360 0 VCC
FLAG -192 1680 ALARM
FLAG 1232 960 0
FLAG 752 1056 VCC
FLAG -192 1232 AUDIO2
FLAG 928 1216 ALARM
FLAG -1088 912 DIS2
FLAG -944 1296 0
FLAG -1088 1232 THRES2
FLAG -944 752 VCC
FLAG -1088 1632 DIS3
FLAG -944 2016 0
FLAG -1088 1952 THRES3
FLAG -944 1472 VCC
FLAG -864 2016 0
FLAG -1088 2320 DIS4
FLAG -944 2704 0
FLAG -1088 2640 THRES4
FLAG -944 2160 VCC
FLAG -864 2704 0
FLAG -336 1328 0
SYMBOL voltage -400 -336 R0
WINDOW 123 0 0 Left 0
WINDOW 39 24 124 Left 2
SYMATTR SpiceLine Rser=0.150
SYMATTR InstName V1
SYMATTR Value 8.4
SYMBOL PowerProducts\\LT1086-5 0 -320 R0
SYMATTR InstName U2
SYMBOL cap -288 -320 R0
SYMATTR InstName C1
SYMATTR Value 0.1µ
SYMATTR SpiceLine V=25 Irms=0 Rser=0.021 Lser=549p mfg="Würth Elektronik" pn="885012209019 WCAP-CSGP 1210" type="X7R"
SYMBOL cap -208 -320 R0
SYMATTR InstName C2
SYMATTR Value 10µ
SYMATTR SpiceLine V=25 Irms=0 Rser=0.0039 Lser=550p mfg="Würth Elektronik" pn="885012208069 WCAP-CSGP 1206" type="X7R"
SYMBOL cap 160 -320 R0
SYMATTR InstName C3
SYMATTR Value 0.1µ
SYMATTR SpiceLine V=25 Irms=0 Rser=0.021 Lser=549p mfg="Würth Elektronik" pn="885012209019 WCAP-CSGP 1210" type="X7R"
SYMBOL cap 240 -320 R0
SYMATTR InstName C4
SYMATTR Value 10µ
SYMATTR SpiceLine V=25 Irms=0 Rser=0.0039 Lser=550p mfg="Würth Elektronik" pn="885012208069 WCAP-CSGP 1206" type="X7R"
SYMBOL nmos 592 80 R0
SYMATTR InstName M1
SYMATTR Value AO6408
SYMBOL res -528 1184 R0
SYMATTR InstName R3
SYMATTR Value 4.7K
SYMATTR SpiceLine tol=1 pwr=0.1
SYMBOL res 800 -16 R0
SYMATTR InstName Speaker
SYMATTR Value 100
SYMBOL polcap 80 1984 R90
WINDOW 0 0 32 VBottom 2
WINDOW 3 32 32 VTop 2
SYMATTR InstName C11
SYMATTR Value 100µ
SYMATTR Description Capacitor
SYMATTR Type cap
SYMATTR SpiceLine V=16 Irms=4.8 Rser=0.0064 Lser=3.543n mfg="Würth Elektronik" pn="870135373001 WCAP-PTHT 6,3 x 11" type="Al polymer"
SYMBOL res 176 1728 R0
SYMATTR InstName R13
SYMATTR Value 4.7K
SYMATTR SpiceLine tol=1 pwr=0.1
SYMBOL res 464 1776 R270
WINDOW 0 32 56 VTop 2
WINDOW 3 0 56 VBottom 2
SYMATTR InstName R14
SYMATTR Value 4.7K
SYMATTR SpiceLine tol=1 pwr=0.1
SYMBOL res 1088 832 R0
SYMATTR InstName TTP_POWER
SYMATTR Value 25
SYMBOL voltage 960 1872 R0
WINDOW 0 -68 53 Left 2
WINDOW 123 0 0 Left 0
WINDOW 39 0 0 Left 0
SYMATTR InstName V2
SYMATTR Value PWL(1 0 1.1 5 1.2 5 1.3 0 3.1 5 3.2 5 3.3 0)
SYMBOL sw 1008 1808 R0
SYMATTR InstName S1
SYMATTR Value switch
SYMBOL res 944 848 R0
SYMATTR InstName R16
SYMATTR Value 4.7K
SYMATTR SpiceLine tol=1 pwr=0.1
SYMBOL res 944 768 R0
SYMATTR InstName R17
SYMATTR Value 1K
SYMATTR SpiceLine tol=1 pwr=0.1
SYMBOL voltage -368 2080 R0
WINDOW 0 -68 53 Left 2
WINDOW 123 0 0 Left 0
WINDOW 39 0 0 Left 0
SYMATTR InstName V3
SYMATTR Value PWL(0 5)
SYMBOL Optos\\PC817C -176 1984 R0
SYMATTR InstName U4
SYMBOL res 176 1856 R0
SYMATTR InstName Timing_POT
SYMATTR Value 5K
SYMBOL diode 64 1872 R0
SYMATTR InstName D12
SYMATTR Value 1N4148
SYMBOL res -960 48 R0
SYMATTR InstName SeriesResistor2
SYMATTR Value 1K
SYMBOL res -960 128 R0
SYMATTR InstName POT3
SYMATTR Value 150K
SYMBOL res -960 208 R0
SYMATTR InstName POT4
SYMATTR Value 150K
SYMBOL cap -960 544 R0
SYMATTR InstName C5
SYMATTR Value 0.1µ
SYMATTR SpiceLine V=25 Irms=0 Rser=0.021 Lser=549p mfg="Würth Elektronik" pn="885012209019 WCAP-CSGP 1210" type="X7R"
SYMBOL diode -816 256 R0
SYMATTR InstName D1
SYMATTR Value 1N4148
SYMBOL diode -928 528 R180
WINDOW 0 24 64 Left 2
WINDOW 3 24 0 Left 2
SYMATTR InstName D3
SYMATTR Value 1N4148
SYMBOL NE556_TRANSISTOR 32 336 R0
SYMATTR InstName U1
SYMBOL cap 256 320 R90
WINDOW 0 0 32 VBottom 2
WINDOW 3 32 32 VTop 2
SYMATTR InstName C13
SYMATTR Value 0.1µ
SYMATTR SpiceLine V=25 Irms=993m Rser=0.0828114 Lser=0 mfg="KEMET" pn="C1812F104K3RAC" type="X7R"
SYMBOL cap -96 288 R90
WINDOW 0 0 32 VBottom 2
WINDOW 3 0 111 VTop 2
SYMATTR InstName C14
SYMATTR Value 0.1µ
SYMATTR SpiceLine V=25 Irms=993m Rser=0.0828114 Lser=0 mfg="KEMET" pn="C1812F104K3RAC" type="X7R"
SYMBOL NE556_TRANSISTOR 32 736 R0
SYMATTR InstName U5
SYMBOL cap -96 688 R90
WINDOW 0 0 32 VBottom 2
WINDOW 3 32 32 VTop 2
SYMATTR InstName C16
SYMATTR Value 0.1µ
SYMATTR SpiceLine V=25 Irms=993m Rser=0.0828114 Lser=0 mfg="KEMET" pn="C1812F104K3RAC" type="X7R"
SYMBOL res 240 784 R90
WINDOW 0 29 -117 VBottom 2
WINDOW 3 4 -62 VTop 2
SYMATTR InstName R1
SYMATTR Value 4.7K
SYMATTR SpiceLine tol=1 pwr=0.1
SYMBOL NE555_TRANSISTOR 512 2016 R0
WINDOW 3 0 108 Top 2
SYMATTR InstName U3
SYMBOL cap 544 2080 R270
WINDOW 0 32 32 VTop 2
WINDOW 3 0 32 VBottom 2
SYMATTR InstName C9
SYMATTR Value 0.1µ
SYMATTR SpiceLine V=25 Irms=993m Rser=0.0828114 Lser=0 mfg="KEMET" pn="C1812F104K3RAC" type="X7R"
SYMBOL diode -272 1024 R90
WINDOW 0 0 32 VBottom 2
WINDOW 3 32 32 VTop 2
SYMATTR InstName D2
SYMATTR Value 1N4148
SYMBOL cap 256 720 R90
WINDOW 0 0 32 VBottom 2
WINDOW 3 32 32 VTop 2
SYMATTR InstName C8
SYMATTR Value 0.1µ
SYMATTR SpiceLine V=25 Irms=993m Rser=0.0828114 Lser=0 mfg="KEMET" pn="C1812F104K3RAC" type="X7R"
SYMBOL cap 160 176 R0
SYMATTR InstName C10
SYMATTR Value 0.1µ
SYMATTR SpiceLine V=25 Irms=0 Rser=0.021 Lser=549p mfg="Würth Elektronik" pn="885012209019 WCAP-CSGP 1210" type="X7R"
SYMBOL cap 240 176 R0
SYMATTR InstName C15
SYMATTR Value 10µ
SYMATTR SpiceLine V=25 Irms=0 Rser=0.0039 Lser=550p mfg="Würth Elektronik" pn="885012208069 WCAP-CSGP 1206" type="X7R"
SYMBOL cap 160 576 R0
SYMATTR InstName C17
SYMATTR Value 0.1µ
SYMATTR SpiceLine V=25 Irms=0 Rser=0.021 Lser=549p mfg="Würth Elektronik" pn="885012209019 WCAP-CSGP 1210" type="X7R"
SYMBOL cap 240 576 R0
SYMATTR InstName C18
SYMATTR Value 10µ
SYMATTR SpiceLine V=25 Irms=0 Rser=0.0039 Lser=550p mfg="Würth Elektronik" pn="885012208069 WCAP-CSGP 1206" type="X7R"
SYMBOL cap 624 1904 R0
SYMATTR InstName C19
SYMATTR Value 0.1µ
SYMATTR SpiceLine V=25 Irms=0 Rser=0.021 Lser=549p mfg="Würth Elektronik" pn="885012209019 WCAP-CSGP 1210" type="X7R"
SYMBOL cap 704 1904 R0
SYMATTR InstName C20
SYMATTR Value 10µ
SYMATTR SpiceLine V=25 Irms=0 Rser=0.0039 Lser=550p mfg="Würth Elektronik" pn="885012208069 WCAP-CSGP 1206" type="X7R"
SYMBOL cap 352 1968 R0
SYMATTR InstName C21
SYMATTR Value 10µ
SYMATTR SpiceLine V=25 Irms=0 Rser=0.0039 Lser=550p mfg="Würth Elektronik" pn="885012208069 WCAP-CSGP 1206" type="X7R"
SYMBOL res 224 384 R90
WINDOW 0 0 56 VBottom 2
WINDOW 3 2 -116 VTop 2
SYMATTR InstName R9
SYMATTR Value 4.7K
SYMATTR SpiceLine tol=1 pwr=0.1
SYMBOL res -64 352 R90
WINDOW 0 30 281 VBottom 2
WINDOW 3 1 229 VTop 2
SYMATTR InstName R10
SYMATTR Value 4.7K
SYMATTR SpiceLine tol=1 pwr=0.1
SYMBOL cap -576 1024 R90
WINDOW 0 0 32 VBottom 2
WINDOW 3 32 32 VTop 2
SYMATTR InstName C22
SYMATTR Value 10µ
SYMATTR SpiceLine V=25 Irms=0 Rser=0.0039 Lser=550p mfg="Würth Elektronik" pn="885012208069 WCAP-CSGP 1206" type="X7R"
SYMBOL res -496 512 R180
WINDOW 0 36 76 Left 2
WINDOW 3 36 40 Left 2
SYMATTR InstName R2
SYMATTR Value 4.7K
SYMATTR SpiceLine tol=1 pwr=0.1
SYMBOL diode 576 224 R0
WINDOW 0 66 10 Left 2
WINDOW 3 52 36 Left 2
SYMATTR InstName D10
SYMATTR Value 1N4148
SYMBOL nmos 960 80 R0
SYMATTR InstName M2
SYMATTR Value AO6408
SYMBOL diode 944 224 R0
WINDOW 0 66 10 Left 2
WINDOW 3 52 36 Left 2
SYMATTR InstName D11
SYMATTR Value 1N4148
SYMBOL nmos 1312 80 R0
SYMATTR InstName M4
SYMATTR Value AO6408
SYMBOL diode 1296 224 R0
WINDOW 0 66 10 Left 2
WINDOW 3 52 36 Left 2
SYMATTR InstName D15
SYMATTR Value 1N4148
SYMBOL res 1344 -16 R0
SYMATTR InstName LEDArray
SYMATTR Value 100
SYMBOL res -208 1664 R0
SYMATTR InstName R4
SYMATTR Value 4.7K
SYMATTR SpiceLine tol=1 pwr=0.1
SYMBOL pmos 1056 960 R0
SYMATTR InstName M3
SYMATTR Value AO4630_P
SYMBOL cap 1232 944 R90
WINDOW 0 0 32 VBottom 2
WINDOW 3 32 32 VTop 2
SYMATTR InstName C23
SYMATTR Value 0.1µ
SYMATTR SpiceLine V=25 Irms=993m Rser=0.0828114 Lser=0 mfg="KEMET" pn="C1812F104K3RAC" type="X7R"
SYMBOL res 832 1072 R270
WINDOW 0 32 56 VTop 2
WINDOW 3 0 56 VBottom 2
SYMATTR InstName R11
SYMATTR Value 4.7K
SYMATTR SpiceLine tol=1 pwr=0.1
SYMBOL diode 912 1152 R0
WINDOW 0 -39 33 Left 2
WINDOW 3 -102 11 Left 2
SYMATTR InstName D8
SYMATTR Value 1N4148
SYMBOL res 912 1040 R0
SYMATTR InstName R7
SYMATTR Value 4.7K
SYMATTR SpiceLine tol=1 pwr=0.1
SYMBOL res -928 432 R180
WINDOW 0 36 76 Left 2
WINDOW 3 36 40 Left 2
SYMATTR InstName SeriesResistor1
SYMATTR Value 1K
SYMBOL res -960 736 R0
SYMATTR InstName SeriesResistor4
SYMATTR Value 1K
SYMBOL res -960 816 R0
SYMATTR InstName POT1
SYMATTR Value 200K
SYMBOL res -960 896 R0
SYMATTR InstName POT2
SYMATTR Value 200K
SYMBOL cap -960 1232 R0
SYMATTR InstName C6
SYMATTR Value 0.1µ
SYMATTR SpiceLine V=25 Irms=0 Rser=0.021 Lser=549p mfg="Würth Elektronik" pn="885012209019 WCAP-CSGP 1210" type="X7R"
SYMBOL diode -816 944 R0
SYMATTR InstName D4
SYMATTR Value 1N4148
SYMBOL diode -928 1216 R180
WINDOW 0 24 64 Left 2
WINDOW 3 24 0 Left 2
SYMATTR InstName D5
SYMATTR Value 1N4148
SYMBOL res -928 1120 R180
WINDOW 0 36 76 Left 2
WINDOW 3 36 40 Left 2
SYMATTR InstName SeriesResistor6
SYMATTR Value 1K
SYMBOL res -960 1456 R0
SYMATTR InstName SeriesResistor7
SYMATTR Value 1K
SYMBOL res -960 1536 R0
SYMATTR InstName POT5
SYMATTR Value 20K
SYMBOL res -960 1616 R0
SYMATTR InstName POT6
SYMATTR Value 20K
SYMBOL cap -960 1952 R0
SYMATTR InstName C7
SYMATTR Value 10µ
SYMATTR SpiceLine V=25 Irms=0 Rser=0.001 Lser=0 mfg="TDK" pn="C575OX7RIE106M" type="X7R"
SYMBOL diode -816 1664 R0
SYMATTR InstName D6
SYMATTR Value 1N4148
SYMBOL diode -928 1936 R180
WINDOW 0 24 64 Left 2
WINDOW 3 24 0 Left 2
SYMATTR InstName D7
SYMATTR Value 1N4148
SYMBOL res -928 1840 R180
WINDOW 0 36 76 Left 2
WINDOW 3 36 40 Left 2
SYMATTR InstName SeriesResistor9
SYMATTR Value 1K
SYMBOL cap -880 1952 R0
SYMATTR InstName C12
SYMATTR Value 10µ
SYMATTR SpiceLine V=25 Irms=0 Rser=0.001 Lser=0 mfg="TDK" pn="C575OX7RIE106M" type="X7R"
SYMBOL res -960 2144 R0
SYMATTR InstName SeriesResistor10
SYMATTR Value 1K
SYMBOL res -960 2224 R0
SYMATTR InstName POT7
SYMATTR Value 20K
SYMBOL res -960 2304 R0
SYMATTR InstName POT8
SYMATTR Value 20K
SYMBOL cap -960 2640 R0
SYMATTR InstName C24
SYMATTR Value 10µ
SYMATTR SpiceLine V=25 Irms=0 Rser=0.001 Lser=0 mfg="TDK" pn="C575OX7RIE106M" type="X7R"
SYMBOL diode -816 2352 R0
SYMATTR InstName D9
SYMATTR Value 1N4148
SYMBOL diode -928 2624 R180
WINDOW 0 24 64 Left 2
WINDOW 3 24 0 Left 2
SYMATTR InstName D13
SYMATTR Value 1N4148
SYMBOL res -928 2528 R180
WINDOW 0 36 76 Left 2
WINDOW 3 36 40 Left 2
SYMATTR InstName SeriesResistor12
SYMATTR Value 1K
SYMBOL cap -880 2640 R0
SYMATTR InstName C25
SYMATTR Value 10µ
SYMATTR SpiceLine V=25 Irms=0 Rser=0.001 Lser=0 mfg="TDK" pn="C575OX7RIE106M" type="X7R"
SYMBOL nmos -384 1232 R0
SYMATTR InstName M5
SYMATTR Value AO6408
SYMBOL nmos -64 1840 R0
SYMATTR InstName M6
SYMATTR Value AO6408
TEXT -1120 -280 Left 2 !.tran 0 5 0 1 uic\n \n.options reltol=0.001 abstol=1p chgtol=1f\n.options gmin=1p cshunt=10f\n.options itl1=300 itl2=1500 itl4=50\n \n.model switch sw(ron=0.001 roff=1MEG vt=4.9 vh=0)
TEXT -344 2256 Left 2 ;PWL(3 0 3.1 5 3.5 5 3.6 0)
TEXT -1512 760 Left 2 ;LED and Toggle:\n20uf , 100K POT = 0.2hz\n20uf , 1K POT = 12Hz\n \nAudio\n0.1uf , 1K = 5KHz\n0.1uf,  100K = 55Hz
