Version 4
SHEET 1 1296 732
WIRE 608 -496 480 -496
WIRE 688 -496 608 -496
WIRE 752 -496 688 -496
WIRE 1056 -496 1008 -496
WIRE 1136 -496 1056 -496
WIRE 1232 -496 1136 -496
WIRE -80 32 -224 32
WIRE 64 32 -80 32
WIRE 784 48 624 48
WIRE 64 64 64 32
WIRE 992 80 848 80
WIRE 1008 80 992 80
WIRE -80 144 -80 112
WIRE -80 256 -80 224
WIRE -80 336 -80 320
WIRE -80 336 -224 336
WIRE 64 336 64 128
WIRE 64 336 -80 336
WIRE -80 352 -80 336
FLAG 608 -432 0
FLAG 688 -432 0
FLAG 1056 -432 0
FLAG 1136 -432 0
FLAG 1232 -496 VCC
FLAG 880 -400 0
FLAG 480 -416 0
FLAG 848 -16 VCC
FLAG 784 -16 0
FLAG 784 16 THRES1
FLAG 848 48 THRES1
FLAG 848 16 DIS1
FLAG 1056 80 0
FLAG 784 80 VCC
FLAG -224 32 DIS1
FLAG -80 400 0
FLAG -224 336 THRES1
FLAG -80 -128 VCC
SYMBOL voltage 480 -512 R0
WINDOW 123 0 0 Left 0
WINDOW 39 24 124 Left 2
SYMATTR SpiceLine Rser=0.150
SYMATTR InstName V1
SYMATTR Value 8.4
SYMBOL PowerProducts\\LT1086-5 880 -496 R0
SYMATTR InstName U1
SYMBOL cap 592 -496 R0
SYMATTR InstName C2
SYMATTR Value 0.1µ
SYMATTR SpiceLine V=25 Irms=0 Rser=0.021 Lser=549p mfg="Würth Elektronik" pn="885012209019 WCAP-CSGP 1210" type="X7R"
SYMBOL cap 672 -496 R0
SYMATTR InstName C3
SYMATTR Value 10µ
SYMATTR SpiceLine V=25 Irms=0 Rser=0.0039 Lser=550p mfg="Würth Elektronik" pn="885012208069 WCAP-CSGP 1206" type="X7R"
SYMBOL cap 1040 -496 R0
SYMATTR InstName C4
SYMATTR Value 0.1µ
SYMATTR SpiceLine V=25 Irms=0 Rser=0.021 Lser=549p mfg="Würth Elektronik" pn="885012209019 WCAP-CSGP 1210" type="X7R"
SYMBOL cap 1120 -496 R0
SYMATTR InstName C5
SYMATTR Value 10µ
SYMATTR SpiceLine V=25 Irms=0 Rser=0.0039 Lser=550p mfg="Würth Elektronik" pn="885012208069 WCAP-CSGP 1206" type="X7R"
SYMBOL NE555_TRANSISTOR 816 32 R0
SYMATTR InstName U2
SYMBOL cap 1056 64 R90
WINDOW 0 0 32 VBottom 2
WINDOW 3 32 32 VTop 2
SYMATTR InstName C6
SYMATTR Value 0.1µ
SYMATTR SpiceLine V=25 Irms=0 Rser=0 Lser=0 mfg="Murata" pn="GRM033R61E224KE01" type="X5R"
SYMBOL res -96 -144 R0
SYMATTR InstName SeriesResistor1
SYMATTR Value 1K
SYMBOL res -96 -64 R0
SYMATTR InstName POT3
SYMATTR Value 10
SYMATTR SpiceLine tol=1 pwr=0.1
SYMBOL res -96 16 R0
SYMATTR InstName POT4
SYMATTR Value 10
SYMATTR SpiceLine tol=1 pwr=0.1
SYMBOL cap -96 336 R0
SYMATTR InstName C7
SYMATTR Value 0.1µ
SYMATTR SpiceLine V=50 Irms=0 Rser=0.105 Lser=784p mfg="Würth Elektronik" pn="885382206004 WCAP-CSST 0603" type="X7R"
SYMBOL diode 48 64 R0
SYMATTR InstName D3
SYMATTR Value 1N4148
SYMBOL diode -64 320 R180
WINDOW 0 24 64 Left 2
WINDOW 3 24 0 Left 2
SYMATTR InstName D4
SYMATTR Value 1N4148
SYMBOL res -64 240 R180
WINDOW 0 36 76 Left 2
WINDOW 3 36 40 Left 2
SYMATTR InstName SeriesResistor3
SYMATTR Value 1K
TEXT -240 -456 Left 2 !.tran 0 20 0 1 uic\n \n.options reltol=0.001 abstol=1p chgtol=1f\n.options gmin=1p cshunt=10f\n.options itl1=300 itl2=1500 itl4=50\n \n.model switch sw(ron=0.001 roff=1MEG vt=4.9 vh=0)
TEXT -112 520 Left 2 ;LED and Toggle:\n20uf , 100K POT = 0.2hz\n20uf , 1K POT = 12Hz\n \nAudio\n0.1uf , 1K = 5KHz\n0.1uf,  100K = 55Hz
